powerflow scaled loads and generation PSSE/new_-3.csv
;Bus Name;Area Number;Zone Number;Volt (PU);Volt (KV);Angle (Deg);Gen MW;Gen MVAR;Load MW;Load MVAR;Shunt MW;Shunt MVAR;To Bus Name;MW;MVAR;Transformer Ratio;Transformer Angle (Deg);Percent;Rating
;101     NUC-A       21.600;1;77;1.0200;22.0320;21.2068;749.3604;80.3340;0.0000;0.0000;0.0000;-0.0000;;0.0000;0.0000;;0.0000;0;
;;0;0;0.0000;0.0000;0.0000;0.0000;0.0000;0.0000;0.0000;0.0000;0.0000;151     NUCPANT     500.00    1  1;749.3606;80.3340;1.000UN;0.0000;60;1250
;102     NUC-B       21.600;1;77;1.0200;22.0320;21.2068;749.3604;80.3340;0.0000;0.0000;0.0000;-0.0000;;0.0000;0.0000;;0.0000;0;
;;0;0;0.0000;0.0000;0.0000;0.0000;0.0000;0.0000;0.0000;0.0000;0.0000;151     NUCPANT     500.00    1  1;749.3606;80.3340;1.000UN;0.0000;60;1250
;151     NUCPANT     500.00;1;1;1.0120;506.0028;15.5542;0.0000;0.0000;0.0000;0.0000;0.0000;614.4933;;0.0000;0.0000;;0.0000;0;
;;0;0;0.0000;0.0000;0.0000;0.0000;0.0000;0.0000;0.0000;0.0000;0.0000;101     NUC-A       21.600    1  1;-747.7228;-6.0863;1.000LK;0.0000;60;1250
;;0;0;0.0000;0.0000;0.0000;0.0000;0.0000;0.0000;0.0000;0.0000;0.0000;102     NUC-B       21.600    1  1;-747.7228;-6.0863;1.000LK;0.0000;60;1250
;;0;0;0.0000;0.0000;0.0000;0.0000;0.0000;0.0000;0.0000;0.0000;0.0000;152     MID500      500.00    1  1;472.5415;-169.0034;;0.0000;41;1200
;;0;0;0.0000;0.0000;0.0000;0.0000;0.0000;0.0000;0.0000;0.0000;0.0000;152     MID500      500.00    1  2;472.5415;-169.0034;;0.0000;41;1200
;;0;0;0.0000;0.0000;0.0000;0.0000;0.0000;0.0000;0.0000;0.0000;0.0000;201     HYDRO       500.00    2  1;550.3644;-264.3140;;0.0000;50;1200
;152     MID500      500.00;1;1;1.0181;509.0387;3.3898;0.0000;0.0000;0.0000;0.0000;0.0000;-0.0000;;0.0000;0.0000;;0.0000;0;
;;0;0;0.0000;0.0000;0.0000;0.0000;0.0000;0.0000;0.0000;0.0000;0.0000;151     NUCPANT     500.00    1  1;-466.8701;-91.2679;;0.0000;39;1200
;;0;0;0.0000;0.0000;0.0000;0.0000;0.0000;0.0000;0.0000;0.0000;0.0000;151     NUCPANT     500.00    1  2;-466.8701;-91.2679;;0.0000;39;1200
;;0;0;0.0000;0.0000;0.0000;0.0000;0.0000;0.0000;0.0000;0.0000;0.0000;153     MID230      230.00    1  1;729.6357;292.2506;1.009LK;0.0000;31;2500
;;0;0;0.0000;0.0000;0.0000;0.0000;0.0000;0.0000;0.0000;0.0000;0.0000;202     EAST500     500.00    2  1;2.1021;32.7170;;0.0000;3;1200
;;0;0;0.0000;0.0000;0.0000;0.0000;0.0000;0.0000;0.0000;0.0000;0.0000;3004     WEST        500.00    5  1;202.0047;-142.4318;;0.0000;0;
;153     MID230      230.00;1;1;0.9948;228.8033;1.3061;0.0000;0.0000;188.2384;100.0000;0.0000;-0.0000;;0.0000;0.0000;;0.0000;0;
;;0;0;0.0000;0.0000;0.0000;0.0000;0.0000;0.0000;0.0000;0.0000;0.0000;152     MID500      500.00    1  1;-729.6357;-261.8870;1.000UN;0.0000;31;2500
;;0;0;0.0000;0.0000;0.0000;0.0000;0.0000;0.0000;0.0000;0.0000;0.0000;154     DOWNTN      230.00    1  1;228.0385;100.7290;;0.0000;84;300
;;0;0;0.0000;0.0000;0.0000;0.0000;0.0000;0.0000;0.0000;0.0000;0.0000;154     DOWNTN      230.00    1  2;190.0321;80.6420;;0.0000;69;300
;;0;0;0.0000;0.0000;0.0000;0.0000;0.0000;0.0000;0.0000;0.0000;0.0000;3006     UPTOWN      230.00    5  1;123.3264;-19.4843;;0.0000;0;
;154     DOWNTN      230.00;1;1;0.9406;216.3459;-4.6645;0.0000;0.0000;941.1920;800.0000;0.0000;-251.4674;;0.0000;0.0000;;0.0000;0;
;;0;0;0.0000;0.0000;0.0000;0.0000;0.0000;0.0000;0.0000;0.0000;0.0000;153     MID230      230.00    1  1;-224.8470;-81.3767;;0.0000;85;300
;;0;0;0.0000;0.0000;0.0000;0.0000;0.0000;0.0000;0.0000;0.0000;0.0000;153     MID230      230.00    1  2;-187.3725;-70.7632;;0.0000;71;300
;;0;0;0.0000;0.0000;0.0000;0.0000;0.0000;0.0000;0.0000;0.0000;0.0000;203     EAST230     230.00    2  1;-117.8438;-54.2582;;0.0000;69;200
;;0;0;0.0000;0.0000;0.0000;0.0000;0.0000;0.0000;0.0000;0.0000;0.0000;205     SUB230      230.00    2  1;-391.9464;-243.4097;;0.0000;82;600
;;0;0;0.0000;0.0000;0.0000;0.0000;0.0000;0.0000;0.0000;0.0000;0.0000;3008     CATDOG      230.00    5  1;-19.1885;-98.7275;;0.0000;27;400
;201     HYDRO       500.00;2;2;1.0400;520.0001;10.9447;0.0000;0.0000;0.0000;0.0000;0.0000;-307.4021;;0.0000;0.0000;;0.0000;0;
;;0;0;0.0000;0.0000;0.0000;0.0000;0.0000;0.0000;0.0000;0.0000;0.0000;151     NUCPANT     500.00    1  1;-547.0050;188.3597;;0.0000;46;1200
;;0;0;0.0000;0.0000;0.0000;0.0000;0.0000;0.0000;0.0000;0.0000;0.0000;202     EAST500     500.00    2  1;559.9076;8.0339;;0.0000;45;1200
;;0;0;0.0000;0.0000;0.0000;0.0000;0.0000;0.0000;0.0000;0.0000;0.0000;205     SUB230      230.00    2  &1;584.2618;59.9844;;0.0000;47;1200
;;0;0;0.0000;0.0000;0.0000;0.0000;0.0000;0.0000;0.0000;0.0000;0.0000;211     HYDRO_G     20.000    2  1;-597.1560;51.0033;1.000LK;0.0000;75;800
;202     EAST500     500.00;2;2;1.0100;505.0057;3.4146;0.0000;0.0000;0.0000;0.0000;0.0000;-0.0000;;0.0000;0.0000;;0.0000;0;
;;0;0;0.0000;0.0000;0.0000;0.0000;0.0000;0.0000;0.0000;0.0000;0.0000;152     MID500      500.00    1  1;-2.0502;-129.7573;;0.0000;11;1200
;;0;0;0.0000;0.0000;0.0000;0.0000;0.0000;0.0000;0.0000;0.0000;0.0000;201     HYDRO       500.00    2  1;-553.8610;-142.6243;;0.0000;47;1200
;;0;0;0.0000;0.0000;0.0000;0.0000;0.0000;0.0000;0.0000;0.0000;0.0000;203     EAST230     230.00    2  1;555.9138;272.3817;1.000LK;0.0000;77;800
;203     EAST230     230.00;2;2;0.9680;222.6464;-1.8227;0.0000;0.0000;282.3576;150.0000;0.0000;-44.3879;;0.0000;0.0000;;0.0000;0;
;;0;0;0.0000;0.0000;0.0000;0.0000;0.0000;0.0000;0.0000;0.0000;0.0000;154     DOWNTN      230.00    1  1;118.5839;52.5498;;0.0000;67;200
;;0;0;0.0000;0.0000;0.0000;0.0000;0.0000;0.0000;0.0000;0.0000;0.0000;202     EAST500     500.00    2  1;-554.4110;-211.3350;1.000UN;0.0000;74;800
;;0;0;0.0000;0.0000;0.0000;0.0000;0.0000;0.0000;0.0000;0.0000;0.0000;205     SUB230      230.00    2  1;76.7343;26.5863;;0.0000;42;200
;;0;0;0.0000;0.0000;0.0000;0.0000;0.0000;0.0000;0.0000;0.0000;0.0000;205     SUB230      230.00    2  2;76.7343;26.5863;;0.0000;42;200
;205     SUB230      230.00;2;2;0.9506;218.6322;-3.8787;0.0000;0.0000;1129.4300;700.0000;0.0000;-256.8105;;0.0000;0.0000;;0.0000;0;
;;0;0;0.0000;0.0000;0.0000;0.0000;0.0000;0.0000;0.0000;0.0000;0.0000;154     DOWNTN      230.00    1  1;392.7332;243.3012;;0.0000;81;600
;;0;0;0.0000;0.0000;0.0000;0.0000;0.0000;0.0000;0.0000;0.0000;0.0000;201     HYDRO       500.00    2  &1;-572.5754;-151.8497;1.000UN;0.0000;74;800
;;0;0;0.0000;0.0000;0.0000;0.0000;0.0000;0.0000;0.0000;0.0000;0.0000;203     EAST230     230.00    2  1;-76.3710;-30.6795;;0.0000;43;200
;;0;0;0.0000;0.0000;0.0000;0.0000;0.0000;0.0000;0.0000;0.0000;0.0000;203     EAST230     230.00    2  2;-76.3710;-30.6795;;0.0000;43;200
;;0;0;0.0000;0.0000;0.0000;0.0000;0.0000;0.0000;0.0000;0.0000;0.0000;206     URBGEN      18.000    2  1;-796.8526;-473.2845;1.000LK;0.0000;103;900
;206     URBGEN      18.000;2;2;1.0251;18.4516;2.3066;799.3177;600.0000;0.0000;0.0000;0.0000;-0.0000;;0.0000;0.0000;;0.0000;0;
;;0;0;0.0000;0.0000;0.0000;0.0000;0.0000;0.0000;0.0000;0.0000;0.0000;205     SUB230      230.00    2  1;799.3242;600.0020;1.000UN;0.0000;111;900
;211     HYDRO_G     20.000;2;2;1.0408;20.8163;17.6960;599.4883;19.5467;0.0000;0.0000;0.0000;-0.0000;;0.0000;0.0000;;0.0000;0;
;;0;0;0.0000;0.0000;0.0000;0.0000;0.0000;0.0000;0.0000;0.0000;0.0000;201     HYDRO       500.00    2  1;599.4807;19.5675;1.000UN;0.0000;75;800
;3001     MINE        230.00;5;5;1.0301;236.9184;-0.3620;0.0000;0.0000;0.0000;0.0000;0.0000;-0.0000;;0.0000;0.0000;;0.0000;0;
;;0;0;0.0000;0.0000;0.0000;0.0000;0.0000;0.0000;0.0000;0.0000;0.0000;3002     E. MINE     500.00    5  1;-8.1703;15.5575;1.000LK;0.0000;2;800
;;0;0;0.0000;0.0000;0.0000;0.0000;0.0000;0.0000;0.0000;0.0000;0.0000;3003     S. MINE     230.00    5  1;77.8651;85.0205;;0.0000;0;
;;0;0;0.0000;0.0000;0.0000;0.0000;0.0000;0.0000;0.0000;0.0000;0.0000;3011     MINE_G      13.800    5  1;-69.6948;-100.5780;1.000LK;0.0000;9;1300
;3002     E. MINE     500.00;5;5;1.0278;513.9194;-0.2931;0.0000;0.0000;0.0000;0.0000;0.0000;-0.0000;;0.0000;0.0000;;0.0000;0;
;;0;0;0.0000;0.0000;0.0000;0.0000;0.0000;0.0000;0.0000;0.0000;0.0000;3001     MINE        230.00    5  1;8.1711;-15.5139;1.000UN;0.0000;2;800
;;0;0;0.0000;0.0000;0.0000;0.0000;0.0000;0.0000;0.0000;0.0000;0.0000;3004     WEST        500.00    5  1;-8.1714;15.5139;;0.0000;0;
;3003     S. MINE     230.00;5;5;1.0235;235.4038;-0.7005;0.0000;0.0000;0.0000;0.0000;0.0000;-0.0000;;0.0000;0.0000;;0.0000;0;
;;0;0;0.0000;0.0000;0.0000;0.0000;0.0000;0.0000;0.0000;0.0000;0.0000;3001     MINE        230.00    5  1;-77.8651;-84.0183;;0.0000;0;
;;0;0;0.0000;0.0000;0.0000;0.0000;0.0000;0.0000;0.0000;0.0000;0.0000;3005     WEST        230.00    5  1;38.9323;42.0092;;0.0000;0;
;;0;0;0.0000;0.0000;0.0000;0.0000;0.0000;0.0000;0.0000;0.0000;0.0000;3005     WEST        230.00    5  2;38.9323;42.0092;;0.0000;0;
;3004     WEST        500.00;5;5;1.0177;508.8412;0.0152;0.0000;0.0000;0.0000;0.0000;0.0000;-0.0000;;0.0000;0.0000;;0.0000;0;
;;0;0;0.0000;0.0000;0.0000;0.0000;0.0000;0.0000;0.0000;0.0000;0.0000;152     MID500      500.00    1  1;-200.8189;-104.7292;;0.0000;0;
;;0;0;0.0000;0.0000;0.0000;0.0000;0.0000;0.0000;0.0000;0.0000;0.0000;3002     E. MINE     500.00    5  1;8.1985;-24.6844;;0.0000;0;
;;0;0;0.0000;0.0000;0.0000;0.0000;0.0000;0.0000;0.0000;0.0000;0.0000;3005     WEST        230.00    5  1;192.6205;129.4136;1.000LK;0.0000;29;800
;3005     WEST        230.00;5;5;0.9967;229.2456;-1.7239;0.0000;0.0000;94.1192;50.0000;0.0000;-0.0000;;0.0000;0.0000;;0.0000;0;
;;0;0;0.0000;0.0000;0.0000;0.0000;0.0000;0.0000;0.0000;0.0000;0.0000;3003     S. MINE     230.00    5  1;-38.7205;-49.2869;;0.0000;0;
;;0;0;0.0000;0.0000;0.0000;0.0000;0.0000;0.0000;0.0000;0.0000;0.0000;3003     S. MINE     230.00    5  2;-38.7205;-49.2869;;0.0000;0;
;;0;0;0.0000;0.0000;0.0000;0.0000;0.0000;0.0000;0.0000;0.0000;0.0000;3004     WEST        500.00    5  1;-192.4126;-120.9644;1.000UN;0.0000;28;800
;;0;0;0.0000;0.0000;0.0000;0.0000;0.0000;0.0000;0.0000;0.0000;0.0000;3006     UPTOWN      230.00    5  1;-122.6261;16.1045;;0.0000;0;
;;0;0;0.0000;0.0000;0.0000;0.0000;0.0000;0.0000;0.0000;0.0000;0.0000;3008     CATDOG      230.00    5  &1;196.7995;98.4037;;0.0000;0;
;;0;0;0.0000;0.0000;0.0000;0.0000;0.0000;0.0000;0.0000;0.0000;0.0000;3008     CATDOG      230.00    5  1;101.5608;55.0299;;0.0000;0;
;3006     UPTOWN      230.00;5;5;0.9958;229.0437;0.4397;0.0000;0.0000;0.0000;0.0000;0.0000;-0.0000;;0.0000;0.0000;;0.0000;0;
;;0;0;0.0000;0.0000;0.0000;0.0000;0.0000;0.0000;0.0000;0.0000;0.0000;153     MID230      230.00    1  1;-123.1694;18.3959;;0.0000;0;
;;0;0;0.0000;0.0000;0.0000;0.0000;0.0000;0.0000;0.0000;0.0000;0.0000;3005     WEST        230.00    5  1;123.1694;-18.3959;;0.0000;0;
;3008     CATDOG      230.00;5;5;0.9612;221.0700;-4.5432;0.0000;0.0000;188.2384;75.0000;0.0000;-0.0000;;0.0000;0.0000;;0.0000;0;
;;0;0;0.0000;0.0000;0.0000;0.0000;0.0000;0.0000;0.0000;0.0000;0.0000;154     DOWNTN      230.00    1  1;19.4226;73.5051;;0.0000;20;400
;;0;0;0.0000;0.0000;0.0000;0.0000;0.0000;0.0000;0.0000;0.0000;0.0000;3005     WEST        230.00    5  &1;-7.0662;-22.3102;;0.0000;0;
;;0;0;0.0000;0.0000;0.0000;0.0000;0.0000;0.0000;0.0000;0.0000;0.0000;3005     WEST        230.00    5  1;-100.7132;-59.4702;;0.0000;0;
;;0;0;0.0000;0.0000;0.0000;0.0000;0.0000;0.0000;0.0000;0.0000;0.0000;3018     CATDOG_G    13.800    5  1;-99.8826;-66.7250;1.000LK;0.0000;80;150
;3011     MINE_G      13.800;5;5;1.0400;14.3520;0.0000;69.7230;101.9892;0.0000;0.0000;0.0000;-0.0000;;0.0000;0.0000;;0.0000;0;
;;0;0;0.0000;0.0000;0.0000;0.0000;0.0000;0.0000;0.0000;0.0000;0.0000;3001     MINE        230.00    5  1;69.7230;101.9892;1.000UN;0.0000;10;1300
;3018     CATDOG_G    13.800;5;5;1.0242;14.1340;0.3961;99.9147;80.0000;0.0000;0.0000;0.0000;-0.0000;;0.0000;0.0000;;0.0000;0;
;;0;0;0.0000;0.0000;0.0000;0.0000;0.0000;0.0000;0.0000;0.0000;0.0000;3008     CATDOG      230.00    5  1;99.9154;80.0002;1.000UN;0.0000;85;150
